<?xml version="1.0" encoding="UTF-8"?>

<!-- generated on 2025-04-23 04:39:23 by Eclipse SUMO netconvert Version 1.12.0
<configuration xmlns:xsi="http://www.w3.org/2001/XMLSchema-instance" xsi:noNamespaceSchemaLocation="http://sumo.dlr.de/xsd/netconvertConfiguration.xsd">

    <input>
        <node-files value="nodes.xml"/>
        <edge-files value="edges.xml"/>
    </input>

    <output>
        <output-file value="hangzhou.net.xml"/>
    </output>

    <tls_building>
        <tls.guess value="true"/>
        <tls.join value="true"/>
    </tls_building>

    <report>
        <aggregate-warnings value="5"/>
    </report>

</configuration>
-->

<net version="1.9" junctionCornerDetail="5" limitTurnSpeed="5.50" xmlns:xsi="http://www.w3.org/2001/XMLSchema-instance" xsi:noNamespaceSchemaLocation="http://sumo.dlr.de/xsd/net_file.xsd">

    <location netOffset="800.00,600.00" convBoundary="0.00,0.00,4000.00,3000.00" origBoundary="-800.00,-600.00,3200.00,2400.00" projParameter="!"/>

    <edge id=":intersection_0_1_0" function="internal">
        <lane id=":intersection_0_1_0_0" index="0" speed="3.65" length="4.67" shape="0.00,601.60 -1.20,600.80 -1.60,600.00 -1.20,599.20 0.00,598.40"/>
    </edge>
    <edge id=":intersection_0_2_0" function="internal">
        <lane id=":intersection_0_2_0_0" index="0" speed="3.65" length="4.67" shape="0.00,1201.60 -1.20,1200.80 -1.60,1200.00 -1.20,1199.20 0.00,1198.40"/>
    </edge>
    <edge id=":intersection_0_3_0" function="internal">
        <lane id=":intersection_0_3_0_0" index="0" speed="3.65" length="4.67" shape="0.00,1801.60 -1.20,1800.80 -1.60,1800.00 -1.20,1799.20 0.00,1798.40"/>
    </edge>
    <edge id=":intersection_0_4_0" function="internal">
        <lane id=":intersection_0_4_0_0" index="0" speed="3.65" length="4.67" shape="0.00,2401.60 -1.20,2400.80 -1.60,2400.00 -1.20,2399.20 0.00,2398.40"/>
    </edge>
    <edge id=":intersection_1_0_0" function="internal">
        <lane id=":intersection_1_0_0_0" index="0" speed="3.65" length="4.67" shape="798.40,0.00 799.20,-1.20 800.00,-1.60 800.80,-1.20 801.60,0.00"/>
    </edge>
    <edge id=":intersection_1_1_0" function="internal">
        <lane id=":intersection_1_1_0_0" index="0" speed="6.51" length="9.03" shape="792.00,613.60 791.65,611.15 790.60,609.40 788.85,608.35 786.40,608.00"/>
    </edge>
    <edge id=":intersection_1_1_1" function="internal">
        <lane id=":intersection_1_1_1_0" index="0" speed="11.11" length="27.20" shape="792.00,613.60 792.00,586.40"/>
        <lane id=":intersection_1_1_1_1" index="1" speed="11.11" length="27.20" shape="795.20,613.60 795.20,586.40"/>
        <lane id=":intersection_1_1_1_2" index="2" speed="11.11" length="27.20" shape="798.40,613.60 798.40,586.40"/>
    </edge>
    <edge id=":intersection_1_1_4" function="internal">
        <lane id=":intersection_1_1_4_0" index="0" speed="10.36" length="5.01" shape="798.40,613.60 799.11,608.64"/>
    </edge>
    <edge id=":intersection_1_1_5" function="internal">
        <lane id=":intersection_1_1_5_0" index="0" speed="3.65" length="1.44" shape="798.40,613.60 799.20,612.40"/>
    </edge>
    <edge id=":intersection_1_1_24" function="internal">
        <lane id=":intersection_1_1_24_0" index="0" speed="10.36" length="19.50" shape="799.11,608.64 799.35,606.95 802.20,602.20 806.95,599.35 813.60,598.40"/>
    </edge>
    <edge id=":intersection_1_1_25" function="internal">
        <lane id=":intersection_1_1_25_0" index="0" speed="3.65" length="3.23" shape="799.20,612.40 800.00,612.00 800.80,612.40 801.60,613.60"/>
    </edge>
    <edge id=":intersection_1_1_6" function="internal">
        <lane id=":intersection_1_1_6_0" index="0" speed="6.51" length="9.03" shape="813.60,608.00 811.15,608.35 809.40,609.40 808.35,611.15 808.00,613.60"/>
    </edge>
    <edge id=":intersection_1_1_7" function="internal">
        <lane id=":intersection_1_1_7_0" index="0" speed="11.11" length="27.20" shape="813.60,608.00 786.40,608.00"/>
        <lane id=":intersection_1_1_7_1" index="1" speed="11.11" length="27.20" shape="813.60,604.80 786.40,604.80"/>
        <lane id=":intersection_1_1_7_2" index="2" speed="11.11" length="27.20" shape="813.60,601.60 786.40,601.60"/>
    </edge>
    <edge id=":intersection_1_1_10" function="internal">
        <lane id=":intersection_1_1_10_0" index="0" speed="10.36" length="5.01" shape="813.60,601.60 808.64,600.89"/>
    </edge>
    <edge id=":intersection_1_1_11" function="internal">
        <lane id=":intersection_1_1_11_0" index="0" speed="3.65" length="1.44" shape="813.60,601.60 812.40,600.80"/>
    </edge>
    <edge id=":intersection_1_1_26" function="internal">
        <lane id=":intersection_1_1_26_0" index="0" speed="10.36" length="19.50" shape="808.64,600.89 806.95,600.65 802.20,597.80 799.35,593.05 798.40,586.40"/>
    </edge>
    <edge id=":intersection_1_1_27" function="internal">
        <lane id=":intersection_1_1_27_0" index="0" speed="3.65" length="3.23" shape="812.40,600.80 812.00,600.00 812.40,599.20 813.60,598.40"/>
    </edge>
    <edge id=":intersection_1_1_12" function="internal">
        <lane id=":intersection_1_1_12_0" index="0" speed="6.51" length="9.03" shape="808.00,586.40 808.35,588.85 809.40,590.60 811.15,591.65 813.60,592.00"/>
    </edge>
    <edge id=":intersection_1_1_13" function="internal">
        <lane id=":intersection_1_1_13_0" index="0" speed="11.11" length="27.20" shape="808.00,586.40 808.00,613.60"/>
        <lane id=":intersection_1_1_13_1" index="1" speed="11.11" length="27.20" shape="804.80,586.40 804.80,613.60"/>
        <lane id=":intersection_1_1_13_2" index="2" speed="11.11" length="27.20" shape="801.60,586.40 801.60,613.60"/>
    </edge>
    <edge id=":intersection_1_1_16" function="internal">
        <lane id=":intersection_1_1_16_0" index="0" speed="10.36" length="5.01" shape="801.60,586.40 800.89,591.36"/>
    </edge>
    <edge id=":intersection_1_1_17" function="internal">
        <lane id=":intersection_1_1_17_0" index="0" speed="3.65" length="1.44" shape="801.60,586.40 800.80,587.60"/>
    </edge>
    <edge id=":intersection_1_1_28" function="internal">
        <lane id=":intersection_1_1_28_0" index="0" speed="10.36" length="19.50" shape="800.89,591.36 800.65,593.05 797.80,597.80 793.05,600.65 786.40,601.60"/>
    </edge>
    <edge id=":intersection_1_1_29" function="internal">
        <lane id=":intersection_1_1_29_0" index="0" speed="3.65" length="3.23" shape="800.80,587.60 800.00,588.00 799.20,587.60 798.40,586.40"/>
    </edge>
    <edge id=":intersection_1_1_18" function="internal">
        <lane id=":intersection_1_1_18_0" index="0" speed="6.51" length="9.03" shape="786.40,592.00 788.85,591.65 790.60,590.60 791.65,588.85 792.00,586.40"/>
    </edge>
    <edge id=":intersection_1_1_19" function="internal">
        <lane id=":intersection_1_1_19_0" index="0" speed="11.11" length="27.20" shape="786.40,592.00 813.60,592.00"/>
        <lane id=":intersection_1_1_19_1" index="1" speed="11.11" length="27.20" shape="786.40,595.20 813.60,595.20"/>
        <lane id=":intersection_1_1_19_2" index="2" speed="11.11" length="27.20" shape="786.40,598.40 813.60,598.40"/>
    </edge>
    <edge id=":intersection_1_1_22" function="internal">
        <lane id=":intersection_1_1_22_0" index="0" speed="10.36" length="5.01" shape="786.40,598.40 791.36,599.11"/>
    </edge>
    <edge id=":intersection_1_1_23" function="internal">
        <lane id=":intersection_1_1_23_0" index="0" speed="3.65" length="1.44" shape="786.40,598.40 787.60,599.20"/>
    </edge>
    <edge id=":intersection_1_1_30" function="internal">
        <lane id=":intersection_1_1_30_0" index="0" speed="10.36" length="19.50" shape="791.36,599.11 793.05,599.35 797.80,602.20 800.65,606.95 801.60,613.60"/>
    </edge>
    <edge id=":intersection_1_1_31" function="internal">
        <lane id=":intersection_1_1_31_0" index="0" speed="3.65" length="3.23" shape="787.60,599.20 788.00,600.00 787.60,600.80 786.40,601.60"/>
    </edge>
    <edge id=":intersection_1_2_0" function="internal">
        <lane id=":intersection_1_2_0_0" index="0" speed="6.51" length="9.03" shape="792.00,1213.60 791.65,1211.15 790.60,1209.40 788.85,1208.35 786.40,1208.00"/>
    </edge>
    <edge id=":intersection_1_2_1" function="internal">
        <lane id=":intersection_1_2_1_0" index="0" speed="11.11" length="27.20" shape="792.00,1213.60 792.00,1186.40"/>
        <lane id=":intersection_1_2_1_1" index="1" speed="11.11" length="27.20" shape="795.20,1213.60 795.20,1186.40"/>
        <lane id=":intersection_1_2_1_2" index="2" speed="11.11" length="27.20" shape="798.40,1213.60 798.40,1186.40"/>
    </edge>
    <edge id=":intersection_1_2_4" function="internal">
        <lane id=":intersection_1_2_4_0" index="0" speed="10.36" length="5.01" shape="798.40,1213.60 799.11,1208.64"/>
    </edge>
    <edge id=":intersection_1_2_5" function="internal">
        <lane id=":intersection_1_2_5_0" index="0" speed="3.65" length="1.44" shape="798.40,1213.60 799.20,1212.40"/>
    </edge>
    <edge id=":intersection_1_2_24" function="internal">
        <lane id=":intersection_1_2_24_0" index="0" speed="10.36" length="19.50" shape="799.11,1208.64 799.35,1206.95 802.20,1202.20 806.95,1199.35 813.60,1198.40"/>
    </edge>
    <edge id=":intersection_1_2_25" function="internal">
        <lane id=":intersection_1_2_25_0" index="0" speed="3.65" length="3.23" shape="799.20,1212.40 800.00,1212.00 800.80,1212.40 801.60,1213.60"/>
    </edge>
    <edge id=":intersection_1_2_6" function="internal">
        <lane id=":intersection_1_2_6_0" index="0" speed="6.51" length="9.03" shape="813.60,1208.00 811.15,1208.35 809.40,1209.40 808.35,1211.15 808.00,1213.60"/>
    </edge>
    <edge id=":intersection_1_2_7" function="internal">
        <lane id=":intersection_1_2_7_0" index="0" speed="11.11" length="27.20" shape="813.60,1208.00 786.40,1208.00"/>
        <lane id=":intersection_1_2_7_1" index="1" speed="11.11" length="27.20" shape="813.60,1204.80 786.40,1204.80"/>
        <lane id=":intersection_1_2_7_2" index="2" speed="11.11" length="27.20" shape="813.60,1201.60 786.40,1201.60"/>
    </edge>
    <edge id=":intersection_1_2_10" function="internal">
        <lane id=":intersection_1_2_10_0" index="0" speed="10.36" length="5.01" shape="813.60,1201.60 808.64,1200.89"/>
    </edge>
    <edge id=":intersection_1_2_11" function="internal">
        <lane id=":intersection_1_2_11_0" index="0" speed="3.65" length="1.44" shape="813.60,1201.60 812.40,1200.80"/>
    </edge>
    <edge id=":intersection_1_2_26" function="internal">
        <lane id=":intersection_1_2_26_0" index="0" speed="10.36" length="19.50" shape="808.64,1200.89 806.95,1200.65 802.20,1197.80 799.35,1193.05 798.40,1186.40"/>
    </edge>
    <edge id=":intersection_1_2_27" function="internal">
        <lane id=":intersection_1_2_27_0" index="0" speed="3.65" length="3.23" shape="812.40,1200.80 812.00,1200.00 812.40,1199.20 813.60,1198.40"/>
    </edge>
    <edge id=":intersection_1_2_12" function="internal">
        <lane id=":intersection_1_2_12_0" index="0" speed="6.51" length="9.03" shape="808.00,1186.40 808.35,1188.85 809.40,1190.60 811.15,1191.65 813.60,1192.00"/>
    </edge>
    <edge id=":intersection_1_2_13" function="internal">
        <lane id=":intersection_1_2_13_0" index="0" speed="11.11" length="27.20" shape="808.00,1186.40 808.00,1213.60"/>
        <lane id=":intersection_1_2_13_1" index="1" speed="11.11" length="27.20" shape="804.80,1186.40 804.80,1213.60"/>
        <lane id=":intersection_1_2_13_2" index="2" speed="11.11" length="27.20" shape="801.60,1186.40 801.60,1213.60"/>
    </edge>
    <edge id=":intersection_1_2_16" function="internal">
        <lane id=":intersection_1_2_16_0" index="0" speed="10.36" length="5.01" shape="801.60,1186.40 800.89,1191.36"/>
    </edge>
    <edge id=":intersection_1_2_17" function="internal">
        <lane id=":intersection_1_2_17_0" index="0" speed="3.65" length="1.44" shape="801.60,1186.40 800.80,1187.60"/>
    </edge>
    <edge id=":intersection_1_2_28" function="internal">
        <lane id=":intersection_1_2_28_0" index="0" speed="10.36" length="19.50" shape="800.89,1191.36 800.65,1193.05 797.80,1197.80 793.05,1200.65 786.40,1201.60"/>
    </edge>
    <edge id=":intersection_1_2_29" function="internal">
        <lane id=":intersection_1_2_29_0" index="0" speed="3.65" length="3.23" shape="800.80,1187.60 800.00,1188.00 799.20,1187.60 798.40,1186.40"/>
    </edge>
    <edge id=":intersection_1_2_18" function="internal">
        <lane id=":intersection_1_2_18_0" index="0" speed="6.51" length="9.03" shape="786.40,1192.00 788.85,1191.65 790.60,1190.60 791.65,1188.85 792.00,1186.40"/>
    </edge>
    <edge id=":intersection_1_2_19" function="internal">
        <lane id=":intersection_1_2_19_0" index="0" speed="11.11" length="27.20" shape="786.40,1192.00 813.60,1192.00"/>
        <lane id=":intersection_1_2_19_1" index="1" speed="11.11" length="27.20" shape="786.40,1195.20 813.60,1195.20"/>
        <lane id=":intersection_1_2_19_2" index="2" speed="11.11" length="27.20" shape="786.40,1198.40 813.60,1198.40"/>
    </edge>
    <edge id=":intersection_1_2_22" function="internal">
        <lane id=":intersection_1_2_22_0" index="0" speed="10.36" length="5.01" shape="786.40,1198.40 791.36,1199.11"/>
    </edge>
    <edge id=":intersection_1_2_23" function="internal">
        <lane id=":intersection_1_2_23_0" index="0" speed="3.65" length="1.44" shape="786.40,1198.40 787.60,1199.20"/>
    </edge>
    <edge id=":intersection_1_2_30" function="internal">
        <lane id=":intersection_1_2_30_0" index="0" speed="10.36" length="19.50" shape="791.36,1199.11 793.05,1199.35 797.80,1202.20 800.65,1206.95 801.60,1213.60"/>
    </edge>
    <edge id=":intersection_1_2_31" function="internal">
        <lane id=":intersection_1_2_31_0" index="0" speed="3.65" length="3.23" shape="787.60,1199.20 788.00,1200.00 787.60,1200.80 786.40,1201.60"/>
    </edge>
    <edge id=":intersection_1_3_0" function="internal">
        <lane id=":intersection_1_3_0_0" index="0" speed="6.51" length="9.03" shape="792.00,1813.60 791.65,1811.15 790.60,1809.40 788.85,1808.35 786.40,1808.00"/>
    </edge>
    <edge id=":intersection_1_3_1" function="internal">
        <lane id=":intersection_1_3_1_0" index="0" speed="11.11" length="27.20" shape="792.00,1813.60 792.00,1786.40"/>
        <lane id=":intersection_1_3_1_1" index="1" speed="11.11" length="27.20" shape="795.20,1813.60 795.20,1786.40"/>
        <lane id=":intersection_1_3_1_2" index="2" speed="11.11" length="27.20" shape="798.40,1813.60 798.40,1786.40"/>
    </edge>
    <edge id=":intersection_1_3_4" function="internal">
        <lane id=":intersection_1_3_4_0" index="0" speed="10.36" length="5.01" shape="798.40,1813.60 799.11,1808.64"/>
    </edge>
    <edge id=":intersection_1_3_5" function="internal">
        <lane id=":intersection_1_3_5_0" index="0" speed="3.65" length="1.44" shape="798.40,1813.60 799.20,1812.40"/>
    </edge>
    <edge id=":intersection_1_3_24" function="internal">
        <lane id=":intersection_1_3_24_0" index="0" speed="10.36" length="19.50" shape="799.11,1808.64 799.35,1806.95 802.20,1802.20 806.95,1799.35 813.60,1798.40"/>
    </edge>
    <edge id=":intersection_1_3_25" function="internal">
        <lane id=":intersection_1_3_25_0" index="0" speed="3.65" length="3.23" shape="799.20,1812.40 800.00,1812.00 800.80,1812.40 801.60,1813.60"/>
    </edge>
    <edge id=":intersection_1_3_6" function="internal">
        <lane id=":intersection_1_3_6_0" index="0" speed="6.51" length="9.03" shape="813.60,1808.00 811.15,1808.35 809.40,1809.40 808.35,1811.15 808.00,1813.60"/>
    </edge>
    <edge id=":intersection_1_3_7" function="internal">
        <lane id=":intersection_1_3_7_0" index="0" speed="11.11" length="27.20" shape="813.60,1808.00 786.40,1808.00"/>
        <lane id=":intersection_1_3_7_1" index="1" speed="11.11" length="27.20" shape="813.60,1804.80 786.40,1804.80"/>
        <lane id=":intersection_1_3_7_2" index="2" speed="11.11" length="27.20" shape="813.60,1801.60 786.40,1801.60"/>
    </edge>
    <edge id=":intersection_1_3_10" function="internal">
        <lane id=":intersection_1_3_10_0" index="0" speed="10.36" length="5.01" shape="813.60,1801.60 808.64,1800.89"/>
    </edge>
    <edge id=":intersection_1_3_11" function="internal">
        <lane id=":intersection_1_3_11_0" index="0" speed="3.65" length="1.44" shape="813.60,1801.60 812.40,1800.80"/>
    </edge>
    <edge id=":intersection_1_3_26" function="internal">
        <lane id=":intersection_1_3_26_0" index="0" speed="10.36" length="19.50" shape="808.64,1800.89 806.95,1800.65 802.20,1797.80 799.35,1793.05 798.40,1786.40"/>
    </edge>
    <edge id=":intersection_1_3_27" function="internal">
        <lane id=":intersection_1_3_27_0" index="0" speed="3.65" length="3.23" shape="812.40,1800.80 812.00,1800.00 812.40,1799.20 813.60,1798.40"/>
    </edge>
    <edge id=":intersection_1_3_12" function="internal">
        <lane id=":intersection_1_3_12_0" index="0" speed="6.51" length="9.03" shape="808.00,1786.40 808.35,1788.85 809.40,1790.60 811.15,1791.65 813.60,1792.00"/>
    </edge>
    <edge id=":intersection_1_3_13" function="internal">
        <lane id=":intersection_1_3_13_0" index="0" speed="11.11" length="27.20" shape="808.00,1786.40 808.00,1813.60"/>
        <lane id=":intersection_1_3_13_1" index="1" speed="11.11" length="27.20" shape="804.80,1786.40 804.80,1813.60"/>
        <lane id=":intersection_1_3_13_2" index="2" speed="11.11" length="27.20" shape="801.60,1786.40 801.60,1813.60"/>
    </edge>
    <edge id=":intersection_1_3_16" function="internal">
        <lane id=":intersection_1_3_16_0" index="0" speed="10.36" length="5.01" shape="801.60,1786.40 800.89,1791.36"/>
    </edge>
    <edge id=":intersection_1_3_17" function="internal">
        <lane id=":intersection_1_3_17_0" index="0" speed="3.65" length="1.44" shape="801.60,1786.40 800.80,1787.60"/>
    </edge>
    <edge id=":intersection_1_3_28" function="internal">
        <lane id=":intersection_1_3_28_0" index="0" speed="10.36" length="19.50" shape="800.89,1791.36 800.65,1793.05 797.80,1797.80 793.05,1800.65 786.40,1801.60"/>
    </edge>
    <edge id=":intersection_1_3_29" function="internal">
        <lane id=":intersection_1_3_29_0" index="0" speed="3.65" length="3.23" shape="800.80,1787.60 800.00,1788.00 799.20,1787.60 798.40,1786.40"/>
    </edge>
    <edge id=":intersection_1_3_18" function="internal">
        <lane id=":intersection_1_3_18_0" index="0" speed="6.51" length="9.03" shape="786.40,1792.00 788.85,1791.65 790.60,1790.60 791.65,1788.85 792.00,1786.40"/>
    </edge>
    <edge id=":intersection_1_3_19" function="internal">
        <lane id=":intersection_1_3_19_0" index="0" speed="11.11" length="27.20" shape="786.40,1792.00 813.60,1792.00"/>
        <lane id=":intersection_1_3_19_1" index="1" speed="11.11" length="27.20" shape="786.40,1795.20 813.60,1795.20"/>
        <lane id=":intersection_1_3_19_2" index="2" speed="11.11" length="27.20" shape="786.40,1798.40 813.60,1798.40"/>
    </edge>
    <edge id=":intersection_1_3_22" function="internal">
        <lane id=":intersection_1_3_22_0" index="0" speed="10.36" length="5.01" shape="786.40,1798.40 791.36,1799.11"/>
    </edge>
    <edge id=":intersection_1_3_23" function="internal">
        <lane id=":intersection_1_3_23_0" index="0" speed="3.65" length="1.44" shape="786.40,1798.40 787.60,1799.20"/>
    </edge>
    <edge id=":intersection_1_3_30" function="internal">
        <lane id=":intersection_1_3_30_0" index="0" speed="10.36" length="19.50" shape="791.36,1799.11 793.05,1799.35 797.80,1802.20 800.65,1806.95 801.60,1813.60"/>
    </edge>
    <edge id=":intersection_1_3_31" function="internal">
        <lane id=":intersection_1_3_31_0" index="0" speed="3.65" length="3.23" shape="787.60,1799.20 788.00,1800.00 787.60,1800.80 786.40,1801.60"/>
    </edge>
    <edge id=":intersection_1_4_0" function="internal">
        <lane id=":intersection_1_4_0_0" index="0" speed="6.51" length="9.03" shape="792.00,2413.60 791.65,2411.15 790.60,2409.40 788.85,2408.35 786.40,2408.00"/>
    </edge>
    <edge id=":intersection_1_4_1" function="internal">
        <lane id=":intersection_1_4_1_0" index="0" speed="11.11" length="27.20" shape="792.00,2413.60 792.00,2386.40"/>
        <lane id=":intersection_1_4_1_1" index="1" speed="11.11" length="27.20" shape="795.20,2413.60 795.20,2386.40"/>
        <lane id=":intersection_1_4_1_2" index="2" speed="11.11" length="27.20" shape="798.40,2413.60 798.40,2386.40"/>
    </edge>
    <edge id=":intersection_1_4_4" function="internal">
        <lane id=":intersection_1_4_4_0" index="0" speed="10.36" length="5.01" shape="798.40,2413.60 799.11,2408.64"/>
    </edge>
    <edge id=":intersection_1_4_5" function="internal">
        <lane id=":intersection_1_4_5_0" index="0" speed="3.65" length="1.44" shape="798.40,2413.60 799.20,2412.40"/>
    </edge>
    <edge id=":intersection_1_4_24" function="internal">
        <lane id=":intersection_1_4_24_0" index="0" speed="10.36" length="19.50" shape="799.11,2408.64 799.35,2406.95 802.20,2402.20 806.95,2399.35 813.60,2398.40"/>
    </edge>
    <edge id=":intersection_1_4_25" function="internal">
        <lane id=":intersection_1_4_25_0" index="0" speed="3.65" length="3.23" shape="799.20,2412.40 800.00,2412.00 800.80,2412.40 801.60,2413.60"/>
    </edge>
    <edge id=":intersection_1_4_6" function="internal">
        <lane id=":intersection_1_4_6_0" index="0" speed="6.51" length="9.03" shape="813.60,2408.00 811.15,2408.35 809.40,2409.40 808.35,2411.15 808.00,2413.60"/>
    </edge>
    <edge id=":intersection_1_4_7" function="internal">
        <lane id=":intersection_1_4_7_0" index="0" speed="11.11" length="27.20" shape="813.60,2408.00 786.40,2408.00"/>
        <lane id=":intersection_1_4_7_1" index="1" speed="11.11" length="27.20" shape="813.60,2404.80 786.40,2404.80"/>
        <lane id=":intersection_1_4_7_2" index="2" speed="11.11" length="27.20" shape="813.60,2401.60 786.40,2401.60"/>
    </edge>
    <edge id=":intersection_1_4_10" function="internal">
        <lane id=":intersection_1_4_10_0" index="0" speed="10.36" length="5.01" shape="813.60,2401.60 808.64,2400.89"/>
    </edge>
    <edge id=":intersection_1_4_11" function="internal">
        <lane id=":intersection_1_4_11_0" index="0" speed="3.65" length="1.44" shape="813.60,2401.60 812.40,2400.80"/>
    </edge>
    <edge id=":intersection_1_4_26" function="internal">
        <lane id=":intersection_1_4_26_0" index="0" speed="10.36" length="19.50" shape="808.64,2400.89 806.95,2400.65 802.20,2397.80 799.35,2393.05 798.40,2386.40"/>
    </edge>
    <edge id=":intersection_1_4_27" function="internal">
        <lane id=":intersection_1_4_27_0" index="0" speed="3.65" length="3.23" shape="812.40,2400.80 812.00,2400.00 812.40,2399.20 813.60,2398.40"/>
    </edge>
    <edge id=":intersection_1_4_12" function="internal">
        <lane id=":intersection_1_4_12_0" index="0" speed="6.51" length="9.03" shape="808.00,2386.40 808.35,2388.85 809.40,2390.60 811.15,2391.65 813.60,2392.00"/>
    </edge>
    <edge id=":intersection_1_4_13" function="internal">
        <lane id=":intersection_1_4_13_0" index="0" speed="11.11" length="27.20" shape="808.00,2386.40 808.00,2413.60"/>
        <lane id=":intersection_1_4_13_1" index="1" speed="11.11" length="27.20" shape="804.80,2386.40 804.80,2413.60"/>
        <lane id=":intersection_1_4_13_2" index="2" speed="11.11" length="27.20" shape="801.60,2386.40 801.60,2413.60"/>
    </edge>
    <edge id=":intersection_1_4_16" function="internal">
        <lane id=":intersection_1_4_16_0" index="0" speed="10.36" length="5.01" shape="801.60,2386.40 800.89,2391.36"/>
    </edge>
    <edge id=":intersection_1_4_17" function="internal">
        <lane id=":intersection_1_4_17_0" index="0" speed="3.65" length="1.44" shape="801.60,2386.40 800.80,2387.60"/>
    </edge>
    <edge id=":intersection_1_4_28" function="internal">
        <lane id=":intersection_1_4_28_0" index="0" speed="10.36" length="19.50" shape="800.89,2391.36 800.65,2393.05 797.80,2397.80 793.05,2400.65 786.40,2401.60"/>
    </edge>
    <edge id=":intersection_1_4_29" function="internal">
        <lane id=":intersection_1_4_29_0" index="0" speed="3.65" length="3.23" shape="800.80,2387.60 800.00,2388.00 799.20,2387.60 798.40,2386.40"/>
    </edge>
    <edge id=":intersection_1_4_18" function="internal">
        <lane id=":intersection_1_4_18_0" index="0" speed="6.51" length="9.03" shape="786.40,2392.00 788.85,2391.65 790.60,2390.60 791.65,2388.85 792.00,2386.40"/>
    </edge>
    <edge id=":intersection_1_4_19" function="internal">
        <lane id=":intersection_1_4_19_0" index="0" speed="11.11" length="27.20" shape="786.40,2392.00 813.60,2392.00"/>
        <lane id=":intersection_1_4_19_1" index="1" speed="11.11" length="27.20" shape="786.40,2395.20 813.60,2395.20"/>
        <lane id=":intersection_1_4_19_2" index="2" speed="11.11" length="27.20" shape="786.40,2398.40 813.60,2398.40"/>
    </edge>
    <edge id=":intersection_1_4_22" function="internal">
        <lane id=":intersection_1_4_22_0" index="0" speed="10.36" length="5.01" shape="786.40,2398.40 791.36,2399.11"/>
    </edge>
    <edge id=":intersection_1_4_23" function="internal">
        <lane id=":intersection_1_4_23_0" index="0" speed="3.65" length="1.44" shape="786.40,2398.40 787.60,2399.20"/>
    </edge>
    <edge id=":intersection_1_4_30" function="internal">
        <lane id=":intersection_1_4_30_0" index="0" speed="10.36" length="19.50" shape="791.36,2399.11 793.05,2399.35 797.80,2402.20 800.65,2406.95 801.60,2413.60"/>
    </edge>
    <edge id=":intersection_1_4_31" function="internal">
        <lane id=":intersection_1_4_31_0" index="0" speed="3.65" length="3.23" shape="787.60,2399.20 788.00,2400.00 787.60,2400.80 786.40,2401.60"/>
    </edge>
    <edge id=":intersection_1_5_0" function="internal">
        <lane id=":intersection_1_5_0_0" index="0" speed="3.65" length="4.67" shape="801.60,3000.00 800.80,3001.20 800.00,3001.60 799.20,3001.20 798.40,3000.00"/>
    </edge>
    <edge id=":intersection_2_0_0" function="internal">
        <lane id=":intersection_2_0_0_0" index="0" speed="3.65" length="4.67" shape="1598.40,0.00 1599.20,-1.20 1600.00,-1.60 1600.80,-1.20 1601.60,0.00"/>
    </edge>
    <edge id=":intersection_2_1_0" function="internal">
        <lane id=":intersection_2_1_0_0" index="0" speed="6.51" length="9.03" shape="1592.00,613.60 1591.65,611.15 1590.60,609.40 1588.85,608.35 1586.40,608.00"/>
    </edge>
    <edge id=":intersection_2_1_1" function="internal">
        <lane id=":intersection_2_1_1_0" index="0" speed="11.11" length="27.20" shape="1592.00,613.60 1592.00,586.40"/>
        <lane id=":intersection_2_1_1_1" index="1" speed="11.11" length="27.20" shape="1595.20,613.60 1595.20,586.40"/>
        <lane id=":intersection_2_1_1_2" index="2" speed="11.11" length="27.20" shape="1598.40,613.60 1598.40,586.40"/>
    </edge>
    <edge id=":intersection_2_1_4" function="internal">
        <lane id=":intersection_2_1_4_0" index="0" speed="10.36" length="5.01" shape="1598.40,613.60 1599.11,608.64"/>
    </edge>
    <edge id=":intersection_2_1_5" function="internal">
        <lane id=":intersection_2_1_5_0" index="0" speed="3.65" length="1.44" shape="1598.40,613.60 1599.20,612.40"/>
    </edge>
    <edge id=":intersection_2_1_24" function="internal">
        <lane id=":intersection_2_1_24_0" index="0" speed="10.36" length="19.50" shape="1599.11,608.64 1599.35,606.95 1602.20,602.20 1606.95,599.35 1613.60,598.40"/>
    </edge>
    <edge id=":intersection_2_1_25" function="internal">
        <lane id=":intersection_2_1_25_0" index="0" speed="3.65" length="3.23" shape="1599.20,612.40 1600.00,612.00 1600.80,612.40 1601.60,613.60"/>
    </edge>
    <edge id=":intersection_2_1_6" function="internal">
        <lane id=":intersection_2_1_6_0" index="0" speed="6.51" length="9.03" shape="1613.60,608.00 1611.15,608.35 1609.40,609.40 1608.35,611.15 1608.00,613.60"/>
    </edge>
    <edge id=":intersection_2_1_7" function="internal">
        <lane id=":intersection_2_1_7_0" index="0" speed="11.11" length="27.20" shape="1613.60,608.00 1586.40,608.00"/>
        <lane id=":intersection_2_1_7_1" index="1" speed="11.11" length="27.20" shape="1613.60,604.80 1586.40,604.80"/>
        <lane id=":intersection_2_1_7_2" index="2" speed="11.11" length="27.20" shape="1613.60,601.60 1586.40,601.60"/>
    </edge>
    <edge id=":intersection_2_1_10" function="internal">
        <lane id=":intersection_2_1_10_0" index="0" speed="10.36" length="5.01" shape="1613.60,601.60 1608.64,600.89"/>
    </edge>
    <edge id=":intersection_2_1_11" function="internal">
        <lane id=":intersection_2_1_11_0" index="0" speed="3.65" length="1.44" shape="1613.60,601.60 1612.40,600.80"/>
    </edge>
    <edge id=":intersection_2_1_26" function="internal">
        <lane id=":intersection_2_1_26_0" index="0" speed="10.36" length="19.50" shape="1608.64,600.89 1606.95,600.65 1602.20,597.80 1599.35,593.05 1598.40,586.40"/>
    </edge>
    <edge id=":intersection_2_1_27" function="internal">
        <lane id=":intersection_2_1_27_0" index="0" speed="3.65" length="3.23" shape="1612.40,600.80 1612.00,600.00 1612.40,599.20 1613.60,598.40"/>
    </edge>
    <edge id=":intersection_2_1_12" function="internal">
        <lane id=":intersection_2_1_12_0" index="0" speed="6.51" length="9.03" shape="1608.00,586.40 1608.35,588.85 1609.40,590.60 1611.15,591.65 1613.60,592.00"/>
    </edge>
    <edge id=":intersection_2_1_13" function="internal">
        <lane id=":intersection_2_1_13_0" index="0" speed="11.11" length="27.20" shape="1608.00,586.40 1608.00,613.60"/>
        <lane id=":intersection_2_1_13_1" index="1" speed="11.11" length="27.20" shape="1604.80,586.40 1604.80,613.60"/>
        <lane id=":intersection_2_1_13_2" index="2" speed="11.11" length="27.20" shape="1601.60,586.40 1601.60,613.60"/>
    </edge>