<configuration>
    <input>
        <net-file value="hangzhou.net.xml"/>
        <route-files value="hangzhou.rou.sorted.xml"/>
    </input>
    <time>
        <begin value="0"/>
        <end value="3600"/>
    </time>
</configuration>
